// Mesh generated on 2021-03-27

// Lf (fore)  = 3
// Lw (wake)  = 3
// R  (outer) = 1
// H  (top/bottom) = 3
// res = 1.2

FoamFile
{
    version  2.0;
    format   acsii;
    class    dictionary;
    object   blockMeshDict;
}

convertToMeters 1.0;

vertices
(
    ( 5.0000000000e-01  0.0000000000e+00  -5.0000000000e-01)
    ( 3.5355339059e-01  3.5355339059e-01  -5.0000000000e-01)
    ( 0.0000000000e+00  5.0000000000e-01  -5.0000000000e-01)
    ( -3.5355339059e-01  3.5355339059e-01  -5.0000000000e-01)
    ( -5.0000000000e-01  0.0000000000e+00  -5.0000000000e-01)
    ( -3.5355339059e-01  -3.5355339059e-01  -5.0000000000e-01)
    ( 0.0000000000e+00  -5.0000000000e-01  -5.0000000000e-01)
    ( 3.5355339059e-01  -3.5355339059e-01  -5.0000000000e-01)
    ( 1.5000000000e+00  0.0000000000e+00  -5.0000000000e-01)
    ( 1.0606601718e+00  1.0606601718e+00  -5.0000000000e-01)
    ( 0.0000000000e+00  1.5000000000e+00  -5.0000000000e-01)
    ( -1.0606601718e+00  1.0606601718e+00  -5.0000000000e-01)
    ( -1.5000000000e+00  0.0000000000e+00  -5.0000000000e-01)
    ( -1.0606601718e+00  -1.0606601718e+00  -5.0000000000e-01)
    ( 0.0000000000e+00  -1.5000000000e+00  -5.0000000000e-01)
    ( 1.0606601718e+00  -1.0606601718e+00  -5.0000000000e-01)
    ( 3.0000000000e+00  0.0000000000e+00  -5.0000000000e-01)
    ( 3.0000000000e+00  1.0606601718e+00  -5.0000000000e-01)
    ( 3.0000000000e+00  3.0000000000e+00  -5.0000000000e-01)
    ( 1.0606601718e+00  3.0000000000e+00  -5.0000000000e-01)
    ( 0.0000000000e+00  3.0000000000e+00  -5.0000000000e-01)
    ( -1.0606601718e+00  3.0000000000e+00  -5.0000000000e-01)
    ( -3.0000000000e+00  3.0000000000e+00  -5.0000000000e-01)
    ( -3.0000000000e+00  1.0606601718e+00  -5.0000000000e-01)
    ( -3.0000000000e+00  3.0000000000e+00  -5.0000000000e-01)
    ( -3.0000000000e+00  -1.0606601718e+00  -5.0000000000e-01)
    ( -3.0000000000e+00  -3.0000000000e+00  -5.0000000000e-01)
    ( -1.0606601718e+00  -3.0000000000e+00  -5.0000000000e-01)
    ( 0.0000000000e+00  -3.0000000000e+00  -5.0000000000e-01)
    ( 1.0606601718e+00  -3.0000000000e+00  -5.0000000000e-01)
    ( 3.0000000000e+00  -3.0000000000e+00  -5.0000000000e-01)
    ( 3.0000000000e+00  -1.0606601718e+00  -5.0000000000e-01)
    ( 5.0000000000e-01  0.0000000000e+00  5.0000000000e-01)
    ( 3.5355339059e-01  3.5355339059e-01  5.0000000000e-01)
    ( 0.0000000000e+00  5.0000000000e-01  5.0000000000e-01)
    ( -3.5355339059e-01  3.5355339059e-01  5.0000000000e-01)
    ( -5.0000000000e-01  0.0000000000e+00  5.0000000000e-01)
    ( -3.5355339059e-01  -3.5355339059e-01  5.0000000000e-01)
    ( 0.0000000000e+00  -5.0000000000e-01  5.0000000000e-01)
    ( 3.5355339059e-01  -3.5355339059e-01  5.0000000000e-01)
    ( 1.5000000000e+00  0.0000000000e+00  5.0000000000e-01)
    ( 1.0606601718e+00  1.0606601718e+00  5.0000000000e-01)
    ( 0.0000000000e+00  1.5000000000e+00  5.0000000000e-01)
    ( -1.0606601718e+00  1.0606601718e+00  5.0000000000e-01)
    ( -1.5000000000e+00  0.0000000000e+00  5.0000000000e-01)
    ( -1.0606601718e+00  -1.0606601718e+00  5.0000000000e-01)
    ( 0.0000000000e+00  -1.5000000000e+00  5.0000000000e-01)
    ( 1.0606601718e+00  -1.0606601718e+00  5.0000000000e-01)
    ( 3.0000000000e+00  0.0000000000e+00  5.0000000000e-01)
    ( 3.0000000000e+00  1.0606601718e+00  5.0000000000e-01)
    ( 3.0000000000e+00  3.0000000000e+00  5.0000000000e-01)
    ( 1.0606601718e+00  3.0000000000e+00  5.0000000000e-01)
    ( 0.0000000000e+00  3.0000000000e+00  5.0000000000e-01)
    ( -1.0606601718e+00  3.0000000000e+00  5.0000000000e-01)
    ( -3.0000000000e+00  3.0000000000e+00  5.0000000000e-01)
    ( -3.0000000000e+00  1.0606601718e+00  5.0000000000e-01)
    ( -3.0000000000e+00  3.0000000000e+00  5.0000000000e-01)
    ( -3.0000000000e+00  -1.0606601718e+00  5.0000000000e-01)
    ( -3.0000000000e+00  -3.0000000000e+00  5.0000000000e-01)
    ( -1.0606601718e+00  -3.0000000000e+00  5.0000000000e-01)
    ( 0.0000000000e+00  -3.0000000000e+00  5.0000000000e-01)
    ( 1.0606601718e+00  -3.0000000000e+00  5.0000000000e-01)
    ( 3.0000000000e+00  -3.0000000000e+00  5.0000000000e-01)
    ( 3.0000000000e+00  -1.0606601718e+00  5.0000000000e-01)
);

blocks
(
    // block 0
    hex (0 8 9 1 32 40 41 33) (12.0 24.0 1.0)  simpleGrading (2.0 1.0 1.0)

    // block 1
    hex (1 9 10 2 33 41 42 34) (12.0 24.0 1.0)  simpleGrading (2.0 1.0 1.0)

    // block 2
    hex (2 10 11 3 34 42 43 35) (12.0 24.0 1.0)  simpleGrading (2.0 1.0 1.0)

    // block 3
    hex (3 11 12 4 35 43 44 36) (12.0 24.0 1.0)  simpleGrading (2.0 1.0 1.0)

    // block 4
    hex (4 12 13 5 36 44 45 37) (12.0 24.0 1.0)  simpleGrading (2.0 1.0 1.0)

    // block 5
    hex (5 13 14 6 37 45 46 38) (12.0 24.0 1.0)  simpleGrading (2.0 1.0 1.0)

    // block 6
    hex (6 14 15 7 38 46 47 39) (12.0 24.0 1.0)  simpleGrading (2.0 1.0 1.0)

    // block 7
    hex (7 15 8 0 39 47 40 32) (12.0 24.0 1.0)  simpleGrading (2.0 1.0 1.0)

    // block 8
    hex (8 16 17 9 40 48 49 41) (36.0 24.0 1.0)  simpleGrading (4.0 1.0 1.0)

    // block 9
    hex (9 17 18 19 41 49 50 51) (36.0 24.0 1.0)  simpleGrading (4.0 1.0 1.0)

    // block 10
    hex (10 9 19 20 42 41 51 52) (24.0 36.0 1.0)  simpleGrading (1.0 4.0 1.0)

    // block 11
    hex (11 10 20 21 43 42 52 53) (24.0 36.0 1.0)  simpleGrading (1.0 4.0 1.0)

    // block 12
    hex (23 11 21 22 55 43 53 54) (18.0 36.0 1.0)  simpleGrading (0.25 4.0 1.0)

    // block 13
    hex (24 12 11 23 56 44 43 55) (18.0 24.0 1.0)  simpleGrading (0.25 1.0 1.0)

    // block 14
    hex (25 13 12 24 57 45 44 56) (18.0 24.0 1.0)  simpleGrading (0.25 1.0 1.0)

    // block 15
    hex (26 27 13 25 58 59 45 57) (18.0 36.0 1.0)  simpleGrading (0.25 0.25 1.0)

    // block 16
    hex (27 28 14 13 59 60 46 45) (24.0 36.0 1.0)  simpleGrading (1.0 0.25 1.0)

    // block 17
    hex (28 29 15 14 60 61 47 46) (24.0 36.0 1.0)  simpleGrading (1.0 0.25 1.0)

    // block 18
    hex (29 30 31 15 61 62 63 47) (36.0 24.0 1.0)  simpleGrading (4.0 0.25 1.0)

    // block 19
    hex (15 31 16 8 47 63 48 40) (36.0 24.0 1.0)  simpleGrading (4.0 1.0 1.0)

);

edges
(
    arc 0 1 (4.3301270189e-01  2.5000000000e-01  -5.0000000000e-01)
    arc 8 9 (1.2990381057e+00  7.5000000000e-01  -5.0000000000e-01)
    arc 32 33 (4.3301270189e-01  2.5000000000e-01  5.0000000000e-01)
    arc 40 41 (1.2990381057e+00  7.5000000000e-01  5.0000000000e-01)
    arc 1 2 (2.5000000000e-01  4.3301270189e-01  -5.0000000000e-01)
    arc 9 10 (7.5000000000e-01  1.2990381057e+00  -5.0000000000e-01)
    arc 33 34 (2.5000000000e-01  4.3301270189e-01  -5.0000000000e-01)
    arc 41 42 (7.5000000000e-01  1.2990381057e+00  -5.0000000000e-01)
    arc 2 3 (-4.3301270189e-01  2.5000000000e-01  -5.0000000000e-01)
    arc 10 11 (-1.2990381057e+00  7.5000000000e-01  -5.0000000000e-01)
    arc 34 35 (-4.3301270189e-01  2.5000000000e-01  5.0000000000e-01)
    arc 42 43 (-1.2990381057e+00  7.5000000000e-01  5.0000000000e-01)
    arc 3 4 (-2.5000000000e-01  4.3301270189e-01  -5.0000000000e-01)
    arc 11 12 (-7.5000000000e-01  1.2990381057e+00  -5.0000000000e-01)
    arc 35 36 (-2.5000000000e-01  4.3301270189e-01  -5.0000000000e-01)
    arc 43 44 (-7.5000000000e-01  1.2990381057e+00  -5.0000000000e-01)
    arc 4 5 (-4.3301270189e-01  -2.5000000000e-01  -5.0000000000e-01)
    arc 12 13 (-1.2990381057e+00  -7.5000000000e-01  -5.0000000000e-01)
    arc 36 37 (-4.3301270189e-01  -2.5000000000e-01  5.0000000000e-01)
    arc 44 45 (-1.2990381057e+00  -7.5000000000e-01  5.0000000000e-01)
    arc 5 6 (-2.5000000000e-01  -4.3301270189e-01  -5.0000000000e-01)
    arc 13 14 (-7.5000000000e-01  -1.2990381057e+00  -5.0000000000e-01)
    arc 37 38 (-2.5000000000e-01  -4.3301270189e-01  -5.0000000000e-01)
    arc 45 46 (-7.5000000000e-01  -1.2990381057e+00  -5.0000000000e-01)
    arc 6 7 (4.3301270189e-01  -2.5000000000e-01  -5.0000000000e-01)
    arc 14 15 (1.2990381057e+00  -7.5000000000e-01  -5.0000000000e-01)
    arc 38 39 (4.3301270189e-01  -2.5000000000e-01  5.0000000000e-01)
    arc 46 47 (1.2990381057e+00  -7.5000000000e-01  5.0000000000e-01)
    arc 7 0 (2.5000000000e-01  -4.3301270189e-01  -5.0000000000e-01)
    arc 15 8 (7.5000000000e-01  -1.2990381057e+00  -5.0000000000e-01)
    arc 39 32 (2.5000000000e-01  -4.3301270189e-01  -5.0000000000e-01)
    arc 47 40 (7.5000000000e-01  -1.2990381057e+00  -5.0000000000e-01)
);

boundary
(
    inlet
    {
        type patch;
        faces
        (
            (22 54 55 23)
            (23 55 56 24)
            (24 56 57 25)
            (25 57 58 26)
        );
    }

    outlet
    {
        type patch;
        faces
        (
            (18 50 49 17)
            (17 49 48 16)
            (16 48 63 31)
            (31 63 62 30)
        );
    }

    cylinder
    {
        type wall;
        faces
        (
            (0 32 33 1)
            (1 33 34 2)
            (2 34 35 3)
            (3 35 36 4)
            (4 36 37 5)
            (5 37 38 6)
            (6 38 39 7)
            (7 39 32 0)
        );
    }

    top
    {
        type symmetryPlane;
        faces
        (
            (22 54 53 21)
            (21 53 52 20)
            (20 52 51 19)
            (19 51 50 18)
        );
    }

    bottom
    {
        type symmetryPlane;
        faces
        (
            (26 58 59 27)
            (27 59 60 28)
            (28 60 61 29)
            (29 61 62 30)
        );
    }

);