/*--------------------------------*- C++ -*----------------------------------*\
  =========                 |
  \\      /  F ield         | OpenFOAM: The Open Source CFD Toolbox
   \\    /   O peration     | Website:  https://openfoam.org
    \\  /    A nd           | Version:  7
     \\/     M anipulation  |
\*---------------------------------------------------------------------------*/
FoamFile
{
    version     2.0;
    format      ascii;
    class       dictionary;
    location    "system";
    object      controlDict;
}
// * * * * * * * * * * * * * * * * * * * * * * * * * * * * * * * * * * * * * //

application     icoFoam;

startFrom       startTime;

startTime       0;

stopAt          endTime;

// make sure to modify the 3 entries below before
// attempting to execute any OpenFOAM utility.
// See README for details

endTime         40.0;
//deltaT          0.005; // 10,000 cells
//deltaT          0.0025; // 20,000 cells
//deltaT          0.00125; // 40,000 cells
//deltaT          0.000625; // 80,000 cells
//deltaT          0.00003125; //160,000 cells

deltaT          0.0004;
writeInterval   5;

writeControl    runTime;

purgeWrite      0;

writeFormat     ascii;

writePrecision  6;

writeCompression off;

timeFormat      general;

timePrecision   6;

runTimeModifiable true;


// ************************************************************************* //

functions 
{ 
    #includeFunc  probes 
    #includeFunc  singleGraph 
}
